LAMMPS (29 Aug 2024)
Loaded 1 plugins from /home/excelsior/apps/deepmd/3.0.0/lib/deepmd_lmp
variable temp equal 1000
# 简单 2-D 玩具体系，用 Lennard-Jones
units metal
atom_style atomic
boundary p p p

region box block -20 20 -20 20 -20 20
create_box 1 box
Created orthogonal box = (-20 -20 -20) to (20 20 20)
#create_atoms 1 random 2 12345 box
create_atoms 1 single 0.0 0.0 0.0
Created 1 atoms
create_atoms 1 single 6.0 0.0 0.0
Created 1 atoms

mass 1 16
pair_style lj/cut 10.0
pair_coeff 1 1 0.1947 3.541

timestep 0.001
#velocity all create 1.0 12345
#velocity all create 1.0 0.0 0.0
velocity all create 1000 12345

# 加载插件
#plugin load /home/excelsior/zqc/work/lammps-metad-toy/fix_crystallize_plugin.so

# 调用 metad fix：fix ID group metad sigma height biasf pace cv_dim nbin_num continue(bool)
#fix metad all metad 0.2 0.05 10 100 1 1600 0
group metad_group id 1 2
2 atoms in group metad_group
fix 2 metad_group plumed plumedfile plumed.dat
fix             1 all nvt  temp 1000 1000 100.0

thermo 1000
thermo_style custom step temp epair etotal press
dump 1 all atom 100 dump.metad.lammpstrj

run 1000000
Generated 0 of 0 mixed pair_coeff terms from geometric mixing rule
Step          Temp          E_pair         TotEng         Press
0   1000          -0.031515574    0.097744571    0.6489558
Averages over the last 501 of 1001 rows, steps 500000 to 1000000:
Temp E_pair TotEng Press
21664.5 -0.000677432 44.9967 262.911
Loop time of 43.3196 on 1 procs for 1000000 steps with 2 atoms
